6
Properties=species:S:1:pos:R:3:forces:R:3 energy=-0.247403 temp=0 time=0
O -1.98194 1.69803 0.845914 0.381451 -0.0881884 -0.775855
H -1.13059 2.04781 0.578339 -0.524162 -0.136454 0.292347
H -2.22589 1.08676 0.14907 0.0262082 0.346458 0.508047
O -3.93785 3.86105 0.993927 0.0183025 -0.386291 0.818132
H -3.31247 3.12874 1.03774 -0.139113 0.22756 -0.154508
H -4.32216 3.90821 1.86894 0.237313 0.0369157 -0.688163
6
Properties=species:S:1:pos:R:3:forces:R:3 energy=-0.253868 temp=0 time=1
O -1.98183 1.698 0.84568 0.29509 -0.0509362 -0.638901
H -1.13309 2.04716 0.579738 -0.411021 -0.0949687 0.250552
H -2.22576 1.08842 0.151501 0.000890963 0.266456 0.411988
O -3.93785 3.86094 0.994174 0.0442006 -0.346563 0.663108
H -3.31313 3.12983 1.037 -0.106626 0.18608 -0.144536
H -4.32102 3.90838 1.86564 0.177465 0.039932 -0.542211
6
Properties=species:S:1:pos:R:3:forces:R:3 energy=-0.263807 temp=8.86196 time=2
O -1.98153 1.69795 0.845061 0.0636833 0.0489811 -0.27215
H -1.13954 2.0456 0.583536 -0.108562 0.0155971 0.138422
H -2.22563 1.09263 0.157876 -0.0663195 0.0526615 0.154977
O -3.93782 3.86061 0.99482 0.113999 -0.239861 0.24613
H -3.31482 3.1327 1.03487 -0.0198353 0.0749052 -0.117088
H -4.31819 3.90894 1.85716 0.0170345 0.0477162 -0.150292
6
Properties=species:S:1:pos:R:3:forces:R:3 energy=-0.262641 temp=22.3058 time=3
O -1.9812 1.69792 0.844278 -0.226409 0.174543 0.186925
H -1.14702 2.04418 0.588658 0.266369 0.150395 -0.00349871
H -2.22613 1.09734 0.165735 -0.146381 -0.211764 -0.165263
O -3.93772 3.86014 0.995615 0.195941 -0.100425 -0.27512
H -3.3167 3.13629 1.03163 0.0902199 -0.0676709 -0.0786983
H -4.31519 3.90996 1.84724 -0.17974 0.0549223 0.335655
6
Properties=species:S:1:pos:R:3:forces:R:3 energy=-0.253853 temp=20.4707 time=4
O -1.98101 1.698 0.843607 -0.444194 0.269388 0.530273
H -1.15195 2.04421 0.593747 0.53342 0.238447 -0.115376
H -2.22803 1.10003 0.172011 -0.191745 -0.397836 -0.399582
O -3.9375 3.85961 0.996244 0.231741 0.0260791 -0.649685
H -3.31771 3.13923 1.02763 0.178609 -0.186802 -0.0375167
H -4.31391 3.9115 1.84053 -0.307831 0.0507232 0.671887
6
Properties=species:S:1:pos:R:3:forces:R:3 energy=-0.254125 temp=8.52985 time=5
O -1.98108 1.69824 0.843256 -0.481076 0.286464 0.58615
H -1.15178 2.04652 0.597731 0.540672 0.218939 -0.148988
H -2.23177 1.0989 0.174463 -0.160539 -0.396325 -0.423805
O -3.93714 3.8591 0.996482 0.176716 0.0981608 -0.670663
H -3.31701 3.14038 1.02328 0.203511 -0.231864 -0.000168635
H -4.31558 3.91353 1.84025 -0.279283 0.0246247 0.657475
6
Properties=species:S:1:pos:R:3:forces:R:3 energy=-0.263701 temp=9.06963 time=6
O -1.98144 1.69865 0.843259 -0.332997 0.223541 0.349192
H -1.14643 2.05093 0.60029 0.282753 0.0905021 -0.102811
H -2.23704 1.09399 0.172858 -0.0519196 -0.20315 -0.233975
O -3.93667 3.85864 0.996314 0.0546435 0.094112 -0.350124
H -3.31437 3.13931 1.01892 0.148557 -0.182833 0.0302766
H -4.31993 3.91579 1.84626 -0.101037 -0.022173 0.307442
6
Properties=species:S:1:pos:R:3:forces:R:3 energy=-0.265998 temp=22.387 time=7
O -1.98201 1.6992 0.843472 -0.100721 0.123829 -0.0202336
H -1.13837 2.0562 0.601864 -0.094661 -0.0854944 -0.020003
H -2.24281 1.08713 0.169014 0.0899165 0.0764595 0.0523363
O -3.93617 3.85824 0.995936 -0.0579735 0.0227272 0.0970405
H -3.3103 3.13649 1.01485 0.0336878 -0.0625346 0.054047
H -4.32524 3.91784 1.85522 0.129751 -0.0749864 -0.163187
6
Properties=species:S:1:pos:R:3:forces:R:3 energy=-0.256782 temp=25.9295 time=8
O -1.98263 1.69982 0.843673 0.0916194 0.0411137 -0.325817
H -1.13122 2.06065 0.603247 -0.409889 -0.232471 0.0475677
H -2.24772 1.081 0.16567 0.209012 0.310572 0.290126
O -3.93571 3.85786 0.995616 -0.101174 -0.079433 0.435986
H -3.30591 3.13307 1.0113 -0.0959038 0.0768 0.0727628
H -4.3293 3.91917 1.86262 0.306335 -0.116582 -0.520626
6
Properties=species:S:1:pos:R:3:forces:R:3 energy=-0.24983 temp=13.4294 time=9
O -1.9832 1.70046 0.843678 0.162494 0.0111162 -0.439499
H -1.128 2.06288 0.605085 -0.54129 -0.299065 0.0669871
H -2.25063 1.07784 0.165104 0.267082 0.410225 0.383803
O -3.93531 3.85742 0.99556 -0.0619112 -0.16649 0.53071
H -3.30244 3.13039 1.00845 -0.192551 0.180375 0.0874798
H -4.33044 3.91939 1.86503 0.366176 -0.13616 -0.62948
6
Properties=species:S:1:pos:R:3:forces:R:3 energy=-0.255022 temp=3.68166 time=10
O -1.98367 1.70112 0.843417 0.0853501 0.0458809 -0.320494
H -1.12995 2.06224 0.607565 -0.446677 -0.26725 0.0288669
H -2.25099 1.07861 0.168211 0.249826 0.343883 0.301839
O -3.93494 3.85689 0.995823 0.0415637 -0.202904 0.348211
H -3.30081 3.12944 1.00643 -0.223335 0.210898 0.0976898
H -4.32807 3.9183 1.86142 0.293272 -0.130509 -0.456113
6
Properties=species:S:1:pos:R:3:forces:R:3 energy=-0.264322 temp=10.5304 time=11
O -1.98409 1.7018 0.842963 -0.116932 0.1359 -0.00589771
H -1.13619 2.05905 0.61032 -0.156451 -0.149268 -0.0556053
H -2.24895 1.08268 0.174208 0.165065 0.132841 0.070403
O -3.93455 3.85623 0.996296 0.172542 -0.172402 -0.0542751
H -3.30132 3.1305 1.00535 -0.176803 0.156217 0.101383
H -4.32289 3.91597 1.85344 0.112579 -0.103288 -0.056008
6
Properties=species:S:1:pos:R:3:forces:R:3 energy=-0.263879 temp=22.9345 time=12
O -1.98458 1.70256 0.842506 -0.368861 0.248124 0.385664
H -1.14391 2.05443 0.612544 0.221017 0.0102195 -0.154339
H -2.24533 1.08801 0.180878 0.0447789 -0.144417 -0.22341
O -3.93406 3.85547 0.996736 0.2715 -0.0795145 -0.514728
H -3.30352 3.13306 1.00524 -0.0650788 0.0313224 0.095927
H -4.31664 3.91264 1.84493 -0.103357 -0.0657343 0.410886
6
Properties=species:S:1:pos:R:3:forces:R:3 energy=-0.256138 temp=22.0936 time=13
O -1.9853 1.70348 0.842281 -0.549429 0.328198 0.667122
H -1.14953 2.0499 0.61329 0.510069 0.138996 -0.218268
H -2.24128 1.09196 0.18541 -0.0581551 -0.359582 -0.440965
O -3.9334 3.85466 0.996866 0.267737 0.0475657 -0.789634
H -3.30635 3.13592 1.00604 0.0751996 -0.121173 0.0794086
H -4.31138 3.90869 1.84034 -0.245422 -0.0340051 0.702336
6
Properties=species:S:1:pos:R:3:forces:R:3 energy=-0.256515 temp=11.7419 time=14
O -1.98634 1.70459 0.842459 -0.547854 0.324923 0.670436
H -1.15026 2.04671 0.611947 0.550254 0.172331 -0.203981
H -2.23779 1.09247 0.185721 -0.0959883 -0.394702 -0.457255
O -3.93258 3.85389 0.99652 0.137661 0.154574 -0.69731
H -3.30845 3.13762 1.00761 0.189132 -0.238662 0.0517386
H -4.30846 3.90441 1.84249 -0.233205 -0.0184636 0.636371
6
Properties=species:S:1:pos:R:3:forces:R:3 energy=-0.266044 temp=12.72 time=15
O -1.98772 1.70589 0.84304 -0.34735 0.229065 0.373448
H -1.14572 2.04516 0.608651 0.31724 0.102142 -0.106449
H -2.23522 1.0892 0.181655 -0.062428 -0.230991 -0.255248
O -3.93168 3.8532 0.995754 -0.0472764 0.178259 -0.27846
H -3.30875 3.13703 1.00967 0.225509 -0.263653 0.0148714
H -4.30778 3.89995 1.85072 -0.0856947 -0.014822 0.251838
6
Properties=species:S:1:pos:R:3:forces:R:3 energy=-0.26963 temp=26.3089 time=16
O -1.9893 1.70734 0.843848 -0.043281 0.083705 -0.0769658
H -1.13815 2.0446 0.604337 -0.0554249 -0.0175792 0.0342664
H -2.23325 1.08372 0.175146 0.00427897 0.0348068 0.0576654
O -3.9308 3.85262 0.994819 -0.171413 0.0879105 0.240554
H -3.30688 3.13392 1.01188 0.167107 -0.178207 -0.0274096
H -4.30791 3.89535 1.86136 0.098733 -0.0106361 -0.22811
6
Properties=species:S:1:pos:R:3:forces:R:3 energy=-0.262374 temp=31.8494 time=17
O -1.99091 1.70883 0.844608 0.229197 -0.0478411 -0.477701
H -1.13111 2.04386 0.60035 -0.383172 -0.116823 0.16182
H -2.23123 1.07858 0.169189 0.0558814 0.268415 0.333893
O -3.93003 3.8521 0.994029 -0.168905 -0.0878068 0.627552
H -3.30342 3.12911 1.01382 0.0430589 -0.0180294 -0.0695026
H -4.30711 3.89065 1.86982 0.223939 0.00208553 -0.576061
6
Properties=species:S:1:pos:R:3:forces:R:3 energy=-0.256123 temp=22.1204 time=18
O -1.99238 1.7103 0.845081 0.370045 -0.117246 -0.681698
H -1.12773 2.04201 0.597913 -0.534384 -0.149948 0.23387
H -2.22868 1.076 0.166428 0.0627566 0.374001 0.4679
O -3.92937 3.85152 0.993618 -0.048682 -0.27928 0.749469
H -3.29954 3.12412 1.0151 -0.0898788 0.149195 -0.104688
H -4.30415 3.88597 1.87277 0.240143 0.0232782 -0.664852
6
Properties=species:S:1:pos:R:3:forces:R:3 energy=-0.260239 temp=13.2414 time=19
O -1.99363 1.7117 0.845142 0.337403 -0.103086 -0.630111
H -1.12947 2.03872 0.597714 -0.457929 -0.103074 0.232176
H -2.22553 1.077 0.168146 0.0176399 0.314205 0.418561
O -3.92873 3.85077 0.993659 0.139505 -0.415529 0.574335
H -3.29653 3.12056 1.01537 -0.177591 0.25921 -0.127188
H -4.2989 3.88152 1.86935 0.140973 0.0482727 -0.467772
6
Properties=species:S:1:pos:R:3:forces:R:3 energy=-0.268086 temp=18.3642 time=20
O -1.99468 1.71303 0.844824 0.145977 -0.0110604 -0.347707
H -1.13559 2.03445 0.599737 -0.177515 0.0110336 0.162459
H -2.22221 1.08101 0.17387 -0.0692083 0.106065 0.204906
O -3.928 3.84977 0.994047 0.330034 -0.449991 0.165345
H -3.29521 3.11948 1.01443 -0.186949 0.273049 -0.134295
H -4.2923 3.87752 1.86145 -0.0423396 0.0709036 -0.050708
6
Properties=species:S:1:pos:R:3:forces:R:3 energy=-0.267404 temp=28.5203 time=21
O -1.99563 1.71436 0.844296 -0.128566 0.122885 0.0529264
H -1.14342 2.03028 0.603315 0.203459 0.152738 0.0555827
H -2.21956 1.08604 0.181556 -0.170092 -0.175028 -0.0908191
O -3.92708 3.8485 0.994534 0.441975 -0.368472 -0.302784
H -3.29569 3.12102 1.0122 -0.111013 0.183295 -0.127106
H -4.28611 3.87421 1.85307 -0.235763 0.0845814 0.4122
6
Properties=species:S:1:pos:R:3:forces:R:3 energy=-0.260437 temp=27.2339 time=22
O -1.99667 1.71576 0.843799 -0.355723 0.23437 0.382936
H -1.14929 2.02757 0.607426 0.50946 0.258679 -0.0365741
H -2.21853 1.08939 0.188372 -0.241363 -0.400117 -0.330836
O -3.92589 3.84701 0.994838 0.396714 -0.19287 -0.580436
H -3.29722 3.12431 1.00876 0.0284976 0.0164625 -0.109569
H -4.28217 3.8717 1.84863 -0.337585 0.0834759 0.674479
6
Properties=species:S:1:pos:R:3:forces:R:3 energy=-0.260839 temp=17.959 time=23
O -1.99792 1.7173 0.843534 -0.409476 0.25924 0.464409
H -1.15029 2.02734 0.611186 0.571192 0.269735 -0.0659635
H -2.21981 1.08891 0.192021 -0.24193 -0.443723 -0.384641
O -3.92446 3.84541 0.994792 0.182908 0.0156972 -0.501843
H -3.29849 3.12776 1.00426 0.179858 -0.16641 -0.0863559
H -4.28146 3.86999 1.85065 -0.282553 0.0654607 0.574395
6
Properties=species:S:1:pos:R:3:forces:R:3 energy=-0.269372 temp=19.1175 time=24
O -1.99941 1.719 0.843549 -0.262022 0.181551 0.262103
H -1.14582 2.02969 0.614315 0.350881 0.175019 -0.0238509
H -2.22341 1.08418 0.191989 -0.163914 -0.276678 -0.225609
O -3.92292 3.84381 0.994444 -0.0975164 0.170284 -0.132414
H -3.29803 3.12961 0.998943 0.273591 -0.284773 -0.0605277
H -4.28346 3.86891 1.85817 -0.10102 0.0345984 0.180298
6
Properties=species:S:1:pos:R:3:forces:R:3 energy=-0.273045 temp=31.6039 time=25
O -2.00107 1.72081 0.843721 -0.00781695 0.0483398 -0.0882782
H -1.138 2.03372 0.617216 -0.0246477 0.0220957 0.0531486
H -2.22858 1.07681 0.189797 -0.0408367 0.00789096 0.0468038
O -3.92144 3.84231 0.994016 -0.292547 0.20116 0.29609
H -3.29495 3.12874 0.993044 0.257285 -0.278765 -0.0323737
H -4.28643 3.86816 1.86742 0.108563 -0.000720832 -0.27539
6
Properties=species:S:1:pos:R:3:forces:R:3 energy=-0.267905 temp=37.5211 time=26
O -2.00273 1.72265 0.843841 0.214541 -0.068558 -0.393922
H -1.1304 2.03795 0.620625 -0.367513 -0.121066 0.114773
H -2.23413 1.06951 0.188053 0.0783015 0.270105 0.289496
O -3.92014 3.84094 0.993766 -0.311907 0.101922 0.567661
H -3.28941 3.1252 0.986834 0.131734 -0.149913 -0.000499303
H -4.28835 3.86741 1.87403 0.254843 -0.0324898 -0.577507
6
Properties=species:S:1:pos:R:3:forces:R:3 energy=-0.26377 temp=30.8507 time=27
O -2.00426 1.72444 0.843723 0.305233 -0.115785 -0.519597
H -1.12633 2.04103 0.625133 -0.539206 -0.205016 0.127601
H -2.23894 1.0648 0.189081 0.156494 0.405412 0.400258
O -3.91903 3.83963 0.993859 -0.164524 -0.068171 0.572413
H -3.28261 3.12023 0.98062 -0.0484217 0.0393869 0.0353705
H -4.28784 3.86634 1.87511 0.290424 -0.0558273 -0.616045
6
Properties=species:S:1:pos:R:3:forces:R:3 energy=-0.267774 temp=24.8713 time=28
O -2.0056 1.72617 0.843291 0.227376 -0.0724848 -0.417881
H -1.12742 2.04215 0.630862 -0.48314 -0.209196 0.0823702
H -2.24225 1.06396 0.193939 0.176509 0.369601 0.340899
O -3.91801 3.83827 0.994297 0.0795832 -0.225556 0.301916
H -3.27628 3.11563 0.974745 -0.209647 0.206665 0.0722399
H -4.28455 3.86474 1.87029 0.209319 -0.0690291 -0.379545
6
Properties=species:S:1:pos:R:3:forces:R:3 energy=-0.273871 temp=29.6602 time=29
O -2.00681 1.72785 0.842608 0.00114425 0.0516431 -0.118539
H -1.13313 2.04126 0.63738 -0.218299 -0.138895 -0.00975736
H -2.24387 1.06667 0.202061 0.139379 0.174943 0.130423
O -3.91695 3.83678 0.994917 0.327245 -0.302888 -0.156872
H -3.27195 3.11301 0.969561 -0.293898 0.28849 0.104021
H -4.27925 3.86247 1.86184 0.0444292 -0.0732921 0.0507238
6
Properties=species:S:1:pos:R:3:forces:R:3 energy=-0.272381 temp=37.1731 time=30
O -2.00802 1.72956 0.841853 -0.296573 0.215505 0.274246
H -1.14093 2.03905 0.643805 0.158412 -0.0260227 -0.119426
H -2.24416 1.07104 0.211431 0.0661072 -0.107014 -0.155602
O -3.91568 3.83511 0.995442 0.472093 -0.264684 -0.611991
H -3.27043 3.11315 0.965372 -0.272145 0.254949 0.12361
H -4.27353 3.85951 1.85388 -0.127894 -0.0727337 0.489163
6
Properties=species:S:1:pos:R:3:forces:R:3 energy=-0.266216 temp=34.606 time=31
O -2.00941 1.73141 0.841264 -0.538208 0.348617 0.592778
H -1.14722 2.03658 0.649086 0.477673 0.0726208 -0.203617
H -2.24381 1.0744 0.219311 -0.00228041 -0.348505 -0.391719
O -3.91414 3.83328 0.995599 0.419732 -0.111769 -0.820735
H -3.27152 3.11573 0.962367 -0.147036 0.11136 0.125854
H -4.26903 3.85585 1.85059 -0.209881 -0.0723233 0.697439
6
Properties=species:S:1:pos:R:3:forces:R:3 energy=-0.266546 temp=26.3337 time=32
O -2.01112 1.73346 0.841032 -0.59684 0.378481 0.675522
H -1.14893 2.03481 0.652418 0.567441 0.100087 -0.223468
H -2.24349 1.07442 0.223442 -0.0228201 -0.417826 -0.454803
O -3.91234 3.83138 0.99526 0.159688 0.109975 -0.653665
H -3.27401 3.11938 0.960567 0.0424945 -0.0977481 0.110412
H -4.26654 3.8515 1.85399 -0.149963 -0.0729688 0.546002
6
Properties=species:S:1:pos:R:3:forces:R:3 energy=-0.272974 temp=27.4222 time=33
O -2.01319 1.73574 0.841207 -0.43401 0.280725 0.478907
H -1.14521 2.034 0.653611 0.374584 0.0415668 -0.170007
H -2.24338 1.07044 0.22322 0.016456 -0.272666 -0.310364
O -3.91044 3.82955 0.994527 -0.187872 0.309091 -0.212629
H -3.2761 3.12209 0.959823 0.221215 -0.289019 0.0826157
H -4.26549 3.84644 1.86261 0.00962678 -0.0696982 0.131478
6
Properties=species:S:1:pos:R:3:forces:R:3 energy=-0.275019 temp=37.1614 time=34
O -2.01552 1.7382 0.841671 -0.133273 0.101317 0.113222
H -1.13791 2.03359 0.653177 0.0103159 -0.0626572 -0.0710158
H -2.24312 1.06385 0.220026 0.0856935 0.00348144 -0.0414739
O -3.90866 3.8279 0.993666 -0.439002 0.38337 0.261842
H -3.27607 3.12204 0.959871 0.303627 -0.368645 0.0506054
H -4.26434 3.84073 1.87249 0.172638 -0.0568671 -0.31318
6
Properties=species:S:1:pos:R:3:forces:R:3 energy=-0.27093 temp=40.9903 time=35
O -2.01794 1.74071 0.842204 0.164646 -0.0780521 -0.245359
H -1.13051 2.03257 0.652064 -0.340429 -0.151924 0.0301199
H -2.24203 1.05729 0.216436 0.139874 0.269508 0.218359
O -3.90714 3.82648 0.992963 -0.470335 0.283839 0.564621
H -3.27314 3.11846 0.960402 0.246105 -0.289654 0.0205304
H -4.26154 3.83446 1.87937 0.26014 -0.0337174 -0.588272
6
Properties=species:S:1:pos:R:3:forces:R:3 energy=-0.269155 temp=35.8614 time=36
O -2.02025 1.74317 0.842588 0.345584 -0.18877 -0.459155
H -1.12636 2.03011 0.651238 -0.531829 -0.183594 0.0988193
H -2.23961 1.05331 0.214936 0.148385 0.413247 0.365408
O -3.90591 3.82524 0.9926 -0.27993 0.0519561 0.597936
H -3.26785 3.1121 0.96113 0.0795809 -0.0881385 -0.00572953
H -4.25626 3.82788 1.88062 0.23821 -0.00470096 -0.597279
6
Properties=species:S:1:pos:R:3:forces:R:3 energy=-0.273946 temp=33.1304 time=37
O -2.02235 1.74553 0.842696 0.35505 -0.196538 -0.465916
H -1.12731 2.02588 0.651358 -0.498033 -0.143512 0.118373
H -2.23577 1.05329 0.216934 0.102504 0.383418 0.353735
O -3.90485 3.82403 0.992598 0.042571 -0.210137 0.361835
H -3.2618 3.1049 0.961803 -0.114473 0.143417 -0.0290003
H -4.24869 3.82125 1.87615 0.112381 0.0233523 -0.339026
6
Properties=species:S:1:pos:R:3:forces:R:3 energy=-0.278774 temp=38.8721 time=38
O -2.02425 1.74776 0.842522 0.198165 -0.102912 -0.275226
H -1.13302 2.02028 0.652612 -0.249871 -0.0413415 0.089666
H -2.23094 1.05694 0.222318 0.0111173 0.187658 0.191952
O -3.90376 3.82269 0.992814 0.37099 -0.401361 -0.0480288
H -3.25684 3.09908 0.962199 -0.25514 0.313351 -0.0505288
H -4.24004 3.81484 1.86844 -0.0752608 0.0446069 0.0921653
6
Properties=species:S:1:pos:R:3:forces:R:3 energy=-0.276164 temp=44.4217 time=39
O -2.02602 1.74993 0.842183 -0.0577147 0.0519394 0.0309794
H -1.14113 2.01429 0.654724 0.123176 0.0916219 0.0314724
H -2.22601 1.06238 0.229539 -0.101315 -0.105353 -0.0565097
O -3.90244 3.82111 0.993002 0.573911 -0.46041 -0.433591
H -3.25432 3.09625 0.962111 -0.292138 0.3647 -0.0710888
H -4.23212 3.80886 1.86161 -0.245919 0.0575023 0.498738
6
Properties=species:S:1:pos:R:3:forces:R:3 energy=-0.270228 temp=40.0843 time=40
O -2.02783 1.75213 0.841862 -0.284915 0.189193 0.303407
H -1.14806 2.00917 0.657137 0.455844 0.2052 -0.0211652
H -2.22205 1.06682 0.236219 -0.196719 -0.367379 -0.276917
O -3.90078 3.81925 0.992927 0.54836 -0.372835 -0.564462
H -3.25461 3.09692 0.961343 -0.210316 0.280192 -0.090664
H -4.22655 3.80343 1.85956 -0.312254 0.0656287 0.649801
6
Properties=species:S:1:pos:R:3:forces:R:3 energy=-0.270479 temp=31.9429 time=41
O -2.0298 1.75445 0.841725 -0.345193 0.221272 0.385391
H -1.15062 2.00602 0.659347 0.570603 0.249546 -0.0319115
H -2.21997 1.06774 0.240248 -0.237363 -0.459389 -0.348569
O -3.89879 3.81716 0.992513 0.282633 -0.167467 -0.346228
H -3.2569 3.10026 0.959706 -0.0304499 0.0828337 -0.107754
H -4.22397 3.79863 1.86372 -0.24023 0.0732032 0.449071
6
Properties=species:S:1:pos:R:3:forces:R:3 energy=-0.275085 temp=32.8585 time=42
O -2.03199 1.7569 0.841819 -0.186894 0.11355 0.222653
H -1.14772 2.00525 0.661252 0.399906 0.208358 0.010581
H -2.22016 1.06426 0.240941 -0.210312 -0.327066 -0.228575
O -3.89663 3.81498 0.991889 -0.109083 0.0839862 0.0903017
H -3.25949 3.1044 0.957039 0.185445 -0.158346 -0.118667
H -4.22369 3.79453 1.87218 -0.0790626 0.0795181 0.0237062
6
Properties=species:S:1:pos:R:3:forces:R:3 energy=-0.274648 temp=40.096 time=43
O -2.03429 1.75942 0.842048 0.107827 -0.0828062 -0.0897386
H -1.14099 2.00648 0.663258 0.0437299 0.111126 0.0822708
H -2.22237 1.05765 0.239446 -0.13665 -0.0471446 0.0115766
O -3.89453 3.81284 0.99132 -0.440599 0.276791 0.504527
H -3.2603 3.10703 0.953235 0.342575 -0.337865 -0.117682
H -4.22416 3.79119 1.88087 0.0831167 0.0798987 -0.390954
6
Properties=species:S:1:pos:R:3:forces:R:3 energy=-0.269611 temp=40.535 time=44
O -2.03652 1.76189 0.842223 0.388256 -0.270037 -0.386093
H -1.13385 2.00878 0.666052 -0.312893 0.00771542 0.143457
H -2.22589 1.05059 0.238062 -0.0530525 0.235707 0.245293
O -3.8927 3.81088 0.991055 -0.557963 0.319804 0.707692
H -3.25783 3.10642 0.948305 0.357826 -0.363638 -0.0988964
H -4.22384 3.78861 1.88582 0.177826 0.0704486 -0.611453
6
Properties=species:S:1:pos:R:3:forces:R:3 energy=-0.269034 temp=34.1588 time=45
O -2.03852 1.76419 0.842165 0.531355 -0.366142 -0.536059
H -1.1297 2.01114 0.670219 -0.517613 -0.0627279 0.16442
H -2.22991 1.04578 0.239026 0.0108166 0.400933 0.371521
O -3.89121 3.8091 0.991217 -0.417993 0.199625 0.619608
H -3.25194 3.10232 0.942429 0.218207 -0.22191 -0.0599511
H -4.22182 3.78671 1.88491 0.175227 0.0502221 -0.559539
6
Properties=species:S:1:pos:R:3:forces:R:3 energy=-0.275101 temp=33.052 time=46
O -2.0402 1.76628 0.841784 0.482923 -0.333656 -0.485209
H -1.1305 2.01291 0.675959 -0.499003 -0.0820878 0.134906
H -2.23383 1.04482 0.243545 0.0397661 0.390645 0.34606
O -3.88997 3.80745 0.991753 -0.0954731 -0.0082873 0.262158
H -3.24396 3.09611 0.935978 -0.00868111 0.0122999 -0.00538692
H -4.21812 3.78529 1.87865 0.0804685 0.0210863 -0.252528
6
Properties=species:S:1:pos:R:3:forces:R:3 energy=-0.279515 temp=40.4138 time=47
O -2.04159 1.76816 0.84111 0.256363 -0.18051 -0.249995
H -1.13608 2.01389 0.682991 -0.264807 -0.051077 0.0622597
H -2.23737 1.04759 0.251378 0.0317617 0.209141 0.17849
O -3.88878 3.80579 0.992447 0.266028 -0.196917 -0.237924
H -3.23606 3.09001 0.929476 -0.224275 0.231583 0.0537789
H -4.21365 3.78408 1.86997 -0.0650708 -0.01222 0.19339
6
Properties=species:S:1:pos:R:3:forces:R:3 energy=-0.275963 temp=45.2242 time=48
O -2.04283 1.76994 0.840286 -0.0706043 0.0412597 0.0877779
H -1.1442 2.01438 0.690619 0.0988065 0.0110133 -0.0314099
H -2.2406 1.05237 0.260919 -0.00117841 -0.0767165 -0.0705959
O -3.88744 3.80401 0.992997 0.508842 -0.287087 -0.655602
H -3.23031 3.08613 0.923489 -0.351257 0.353818 0.104121
H -4.2098 3.78274 1.86315 -0.184608 -0.0422874 0.565709
6
Properties=species:S:1:pos:R:3:forces:R:3 energy=-0.27005 temp=39.3963 time=49
O -2.0441 1.77173 0.839514 -0.363873 0.240136 0.390824
H -1.15137 2.01498 0.697947 0.431883 0.0662917 -0.113741
H -2.24385 1.05641 0.269784 -0.0313099 -0.340128 -0.295275
O -3.88579 3.80206 0.993152 0.514499 -0.244529 -0.765316
H -3.22792 3.08564 0.918498 -0.351031 0.340025 0.134422
H -4.20772 3.781 1.86173 -0.200168 -0.0617951 0.649087
6
Properties=species:S:1:pos:R:3:forces:R:3 energy=-0.270369 temp=31.0852 time=50
O -2.0456 1.77368 0.838978 -0.483022 0.318549 0.519285
H -1.15441 2.01621 0.704185 0.560247 0.0727078 -0.155121
H -2.24739 1.05719 0.275823 -0.025407 -0.441163 -0.384649
O -3.88383 3.79996 0.992846 0.264472 -0.0732244 -0.510877
H -3.22889 3.0884 0.914794 -0.22214 0.191011 0.139165
H -4.20756 3.77867 1.86653 -0.0941488 -0.0678802 0.392196
